.MODEL 2n2907a pnp
+IS=3.02341e-12 BF=523.064 NF=1.16335 VAF=44.2994
+IKF=0.591421 ISE=3.31443e-11 NE=1.9954 BR=4.8572
+NR=1.18959 VAR=1.33092 IKR=5.91421 ISC=3.31443e-11
+NC=3.81262 RB=2.76209 IRB=0.1 RBM=0.880912
+RE=0.0001 RC=0.857407 XTB=0.119647 XTI=1
+EG=1.05 CJE=3.934e-11 VJE=0.680693 MJE=0.379312
+TF=2.75919e-10 XTF=0.674951 VTF=54426.6 ITF=0.067962
+CJC=2.40198e-11 VJC=0.4 MJC=0.462796 XCJC=1
+FC=0.570446 CJS=0 VJS=0.75 MJS=0.5
+TR=1e-07 PTF=0 KF=0 AF=1
